OpenDSS/lwo5_VLN.Txt

SYMMETRICAL COMPONENT VOLTAGES BY BUS (for 3-phase buses)

Bus   Mag:   V1 (kV)    p.u.     V2 (kV)   %V2/V1    V0 (kV)    %V0/V1

sub      19.92          1  9.734E-009  4.887E-008 1.296E-009 6.505E-009
s1       19.92          1  9.734E-009  4.887E-008 1.296E-009 6.505E-009
s2       19.92          1  9.734E-009  4.887E-008 1.296E-009 6.505E-009
2        19.75     0.9916  9.652E-009  4.887E-008 1.285E-009 6.505E-009
3        19.62     0.9852  9.59E-009  4.887E-008 1.276E-009 6.505E-009
4        19.83     0.9957  9.692E-009  4.887E-008 1.29E-009 6.505E-009
